# generated using pymatgen
data_CsLaMnGaCoTcPdRuRhSe
_symmetry_space_group_name_H-M   'P 1'
_cell_length_a   7.49361900
_cell_length_b   10.37076854
_cell_length_c   14.81452370
_cell_angle_alpha   109.10506536
_cell_angle_beta   107.54263976
_cell_angle_gamma   95.98235861
_symmetry_Int_Tables_number   1
_chemical_formula_structural   CsLaMnGaCoTcPdRuRhSe
_chemical_formula_sum   'Cs1 La1 Mn1 Ga1 Co1 Tc1 Ru1 Pd1 Rh1 Se1'
_cell_volume   1010.65685247
_cell_formula_units_Z   1
loop_
 _symmetry_equiv_pos_site_id
 _symmetry_equiv_pos_as_xyz
  1  'x, y, z'
loop_
 _atom_site_type_symbol
 _atom_site_label
 _atom_site_symmetry_multiplicity
 _atom_site_fract_x
 _atom_site_fract_y
 _atom_site_fract_z
 _atom_site_occupancy
  La  La0  1  0.23189560  0.89167905  0.81922622  1
  Cs  Cs1  1  0.39506304  0.29238853  0.30504254  1
  Ru  Ru2  1  0.57459581  0.46626154  0.54389423  1
  Pd  Pd3  1  0.40031821  0.86371990  0.76254368  1
  Tc  Tc4  1  0.98606902  0.79266131  0.96761096  1
  Rh  Rh5  1  0.86215934  0.45196754  0.16365765  1
  Se  Se6  1  0.08594637  0.71490330  0.66978329  1
  Ga  Ga7  1  0.20496750  0.83882803  0.69258016  1
  Co  Co8  1  0.20055318  0.05736363  0.07100415  1
  Mn  Mn9  1  0.31731653  0.45899594  0.38729411  1
