# generated using pymatgen
data_CaMnFe2CoAs2ArPS
_symmetry_space_group_name_H-M   'P 1'
_cell_length_a   4.48962409
_cell_length_b   6.12638178
_cell_length_c   8.69331932
_cell_angle_alpha   64.55989610
_cell_angle_beta   63.91547526
_cell_angle_gamma   56.70721510
_symmetry_Int_Tables_number   1
_chemical_formula_structural   CaMnFe2CoAs2ArPS
_chemical_formula_sum   'Ca1 Mn1 Fe2 Co1 As2 Ar1 P1 S1'
_cell_volume   173.77743355
_cell_formula_units_Z   1
loop_
 _symmetry_equiv_pos_site_id
 _symmetry_equiv_pos_as_xyz
  1  'x, y, z'
loop_
 _atom_site_type_symbol
 _atom_site_label
 _atom_site_symmetry_multiplicity
 _atom_site_fract_x
 _atom_site_fract_y
 _atom_site_fract_z
 _atom_site_occupancy
  As  As0  1  0.12949362  0.55480731  0.96726882  1
  As  As1  1  0.15109214  0.09439486  0.17119038  1
  Fe  Fe2  1  0.40154448  0.39130831  0.38104212  1
  Co  Co3  1  0.50057119  0.95752518  0.46256891  1
  Mn  Mn4  1  0.46469814  0.45563725  0.12063265  1
  Fe  Fe5  1  0.91432392  0.37898737  0.91326697  1
  Ca  Ca6  1  0.11367856  0.93186130  0.28298590  1
  Ar  Ar7  1  0.65845257  0.47022402  0.70573908  1
  S  S8  1  0.16979906  0.61147040  0.53687590  1
  P  P9  1  0.25041544  0.78768247  0.34201127  1
