# generated using pymatgen
data_ZrMnNbCrCuTcGeTeMoI
_symmetry_space_group_name_H-M   'P 1'
_cell_length_a   7.17434060
_cell_length_b   9.53064687
_cell_length_c   13.87713051
_cell_angle_alpha   102.48006197
_cell_angle_beta   101.24881250
_cell_angle_gamma   90.20028857
_symmetry_Int_Tables_number   1
_chemical_formula_structural   ZrMnNbCrCuTcGeTeMoI
_chemical_formula_sum   'Zr1 Mn1 Nb1 Cr1 Tc1 Cu1 Ge1 Te1 Mo1 I1'
_cell_volume   907.61304838
_cell_formula_units_Z   1
loop_
 _symmetry_equiv_pos_site_id
 _symmetry_equiv_pos_as_xyz
  1  'x, y, z'
loop_
 _atom_site_type_symbol
 _atom_site_label
 _atom_site_symmetry_multiplicity
 _atom_site_fract_x
 _atom_site_fract_y
 _atom_site_fract_z
 _atom_site_occupancy
  I  I0  1  0.17085248  0.91079515  0.68280011  1
  Te  Te1  1  0.23692125  0.18629622  0.23502511  1
  Nb  Nb2  1  0.48074543  0.50882775  0.56806248  1
  Tc  Tc3  1  0.76107919  0.77095586  0.75574249  1
  Zr  Zr4  1  0.98761129  0.68116874  0.87427855  1
  Mo  Mo5  1  0.05575491  0.62724209  0.15563281  1
  Ge  Ge6  1  0.98487997  0.93931764  0.70055199  1
  Cu  Cu7  1  0.23181558  0.73491311  0.56021166  1
  Mn  Mn8  1  0.19232358  0.12948418  0.86056662  1
  Cr  Cr9  1  0.38470542  0.27801454  0.32823992  1
